Circuit: * U:\4A\Capteur\Schéma.asc

Direct Newton iteration for .op point succeeded.
.step r2=100
.step r2=105
.step r2=110
.step r2=115
.step r2=120
.step r2=125
.step r2=130
.step r2=135
.step r2=140
.step r2=145
.step r2=150
.step r2=155
.step r2=160
.step r2=165
.step r2=170
.step r2=175
.step r2=180
.step r2=185
.step r2=190
.step r2=195
.step r2=200
.step r2=205
.step r2=210
.step r2=215
.step r2=220
.step r2=225
.step r2=230
.step r2=235
.step r2=240
.step r2=245
.step r2=250
.step r2=255
.step r2=260
.step r2=265
.step r2=270
.step r2=275
.step r2=280
.step r2=285
.step r2=290
.step r2=295
.step r2=300
.step r2=305
.step r2=310
.step r2=315
.step r2=320
.step r2=325
.step r2=330
.step r2=335
.step r2=340
.step r2=345
.step r2=350
.step r2=355
.step r2=360
.step r2=365
.step r2=370
.step r2=375
.step r2=380
.step r2=385
.step r2=390
.step r2=395
.step r2=400
.step r2=405
.step r2=410
.step r2=415
.step r2=420
.step r2=425
.step r2=430
.step r2=435
.step r2=440
.step r2=445
.step r2=450
.step r2=455
.step r2=460
.step r2=465
.step r2=470
.step r2=475
.step r2=480
.step r2=485
.step r2=490
.step r2=495
.step r2=500
.step r2=505
.step r2=510
.step r2=515
.step r2=520
.step r2=525
.step r2=530
.step r2=535
.step r2=540
.step r2=545
.step r2=550
.step r2=555
.step r2=560
.step r2=565
.step r2=570
.step r2=575
.step r2=580
.step r2=585
.step r2=590
.step r2=595
.step r2=600
.step r2=605
.step r2=610
.step r2=615
.step r2=620
.step r2=625
.step r2=630
.step r2=635
.step r2=640
.step r2=645
.step r2=650
.step r2=655
.step r2=660
.step r2=665
.step r2=670
.step r2=675
.step r2=680
.step r2=685
.step r2=690
.step r2=695
.step r2=700
.step r2=705
.step r2=710
.step r2=715
.step r2=720
.step r2=725
.step r2=730
.step r2=735
.step r2=740
.step r2=745
.step r2=750
.step r2=755
.step r2=760
.step r2=765
.step r2=770
.step r2=775
.step r2=780
.step r2=785
.step r2=790
.step r2=795
.step r2=800
.step r2=805
.step r2=810
.step r2=815
.step r2=820
.step r2=825
.step r2=830
.step r2=835
.step r2=840
.step r2=845
.step r2=850
.step r2=855
.step r2=860
.step r2=865
.step r2=870
.step r2=875
.step r2=880
.step r2=885
.step r2=890
.step r2=895
.step r2=900
.step r2=905
.step r2=910
.step r2=915
.step r2=920
.step r2=925
.step r2=930
.step r2=935
.step r2=940
.step r2=945
.step r2=950
.step r2=955
.step r2=960
.step r2=965
.step r2=970
.step r2=975
.step r2=980
.step r2=985
.step r2=990
.step r2=995
.step r2=1000

Date: Tue Feb 10 10:36:35 2026
Total elapsed time: 394.892 seconds.

tnom = 27
temp = 27
method = modified trap
totiter = 49574
traniter = 49552
tranpoints = 24777
accept = 15932
rejected = 8845
matrix size = 16
fillins = 5
solver = Normal
Avg thread counts: 1.0/1.1/1.1/1.0
Matrix Compiler1: 728 bytes object code size  0.9/0.1/[0.1]
Matrix Compiler2: off  [0.1]/0.2/0.1

